18
   -18.97813291
    C          -1.15438984          -0.64171676           0.53516072
    C           0.12355353          -1.46951093           0.35045388
    C           1.26071385          -0.62200911          -0.23362151
    C           1.13902209           0.82390864           0.23382758
    C          -0.12365738           1.46950183          -0.35045554
    C          -1.24529328           0.43982200          -0.53536532
    H           2.22398193          -1.03709850           0.06847335
    H           0.42646387          -1.88125224           1.31523368
    H          -0.07396715          -2.31195430          -0.31537109
    H          -2.02790241          -1.29457450           0.48808285
    H          -1.15482565          -0.16516544           1.51730920
    H           1.09821638           0.83845150           1.32463705
    H           2.01944530           1.39411579          -0.06810737
    H          -0.45927383           2.26709232           0.31532152
    H           0.10636376           1.92607793          -1.31519085
    H          -2.21561701           0.93755083          -0.48844317
    H          -1.16593372          -0.03008912          -1.51750716
    H           1.22309957          -0.64314995          -1.32443780
