18
   -18.98671587
    C          -1.18801685          -0.82664260           0.24152891
    C           0.12190630          -1.44215439          -0.24160756
    C           1.30986971          -0.61551638           0.24168595
    C           1.18801685           0.82664260          -0.24152891
    C          -0.12190630           1.44215439           0.24160756
    C          -1.30986971           0.61551638          -0.24168595
    H           1.33912183          -0.62929092           1.33390069
    H           0.20857890          -2.46794569           0.12357463
    H           0.12469589          -1.47454155          -1.33382318
    H          -2.03296560          -1.41459567          -0.12381474
    H          -1.21485803          -0.84528781           1.33374551
    H           2.03296560           1.41459567           0.12381474
    H           1.21485803           0.84528781          -1.33374551
    H          -0.12469589           1.47454155           1.33382318
    H          -0.20857890           2.46794569          -0.12357463
    H          -2.24164282           1.05334154           0.12333515
    H          -1.33912183           0.62929092          -1.33390069
    H           2.24164282          -1.05334154          -0.12333515
