18
   -18.97813291
    C          -1.13117016          -0.77811544          -0.71525468
    C           0.16306523          -1.50696889          -0.33280961
    C           1.27133568          -0.51787372           0.04919365
    C           1.12272136           0.77683637          -0.74179007
    C          -0.16296186           1.50698009          -0.33385867
    C          -1.26293940           0.51914711           0.07451879
    H           1.21806269          -0.28693148           1.11481310
    H          -0.02426170          -2.17765290           0.50812890
    H           0.48961620          -2.12239452          -1.17344250
    H          -1.12866724          -0.54207085          -1.78109646
    H          -1.98970103          -1.42495155          -0.52558581
    H           1.98515151           1.42421682          -0.57274283
    H           1.09725769           0.53737725          -1.80655674
    H           0.04237291           2.17994001           0.50101285
    H          -0.50731633           2.12015192          -1.16903907
    H          -1.18720666           0.29156512           1.13951314
    H          -2.24377681           0.96702070          -0.09522726
    H           2.24841793          -0.96627606          -0.13977672
